src/test/resources/pst_special/process2/20260620_1130_FO2_IT0.uct
##C 2007.05.01
##N
##ZIT
IMFTV111 MONFALC.CE g 0 0 383.45     6.2     3.6     3.6     5.0     3.8     8.2     9.3     6.8
IMFTV121 MONFALC.CE g 0 0 579.52     9.2     5.6     8.4     2.9     8.5     5.1     5.7     4.4
IPDRV121 PADRICIANO g 0 0 005.54    81.0   -88.9     9.8     4.7     8.9     8.6     4.8     2.7
IPDRV122 PADRICIANO g 0 0 775.67     4.2     6.1     3.6     9.2     4.2     6.0     4.9     7.5
IPLNV111 PLANAIS    g 0 0 079.67   005.1   -58.4     4.3     9.7     7.6     1.4     2.7     9.3
IRDPVA11 REDIPUGLIA g 0 0 321.58    86.2   -46.7     4.5     0.3     9.4     7.8     5.2     6.0
IRDPVA21 REDIPUGLIA g 0 0 592.56    88.9    89.8     1.0     6.5     7.3     2.3     3.2     5.8
IUSTV111 UDINE SUD  g 0 0 505.88     9.1     4.6     5.3     6.7     2.1     1.6     0.0     6.0
##ZXX
XRE_DI11 DIVJ    112  0 0 161.14   -53.0   -08.1     1.2     9.6     2.5     1.1     7.6     7.0
XPA_DI21 DIVJ    211  0 0 272.03   -380.9  4.3       9.3     6.6     8.1     1.6     6.3     7.1
##L
IMFTV121 IPDRV121 1 0 1.980  09.94  241.93  900
IMFTV121 IRDPVA21 1 0 9.644  4.456  53.82   810
IMFTV111 IRDPVA11 1 0 0.774  3.717  43.58   2000
IPLNV111 IRDPVA11 1 0 1.999  0.710  472.69  2490
IRDPVA21 IPDRV121 1 0 9.219  27.03  565.57  855
IUSTV111 IRDPVA11 1 0 7.864  4.889  42.11   3150
IUSTV111 IRDPVA11 2 0 4.082  9.739  55.10   3150
XPA_DI21 IPDRV122 1 0 6.955  7.140  36.54   960
XRE_DI11 IRDPVA11 1 0 1.958  9.479  53.23   2450
##T
IPDRV121 IPDRV122 1 0 012.5 927.0 370.  7.156 10.901  -1.948  5.277
IRDPVA21 IRDPVA11 1 0 998.8 050.4 400.  7.743 79.829  -4.037  8.788
IRDPVA21 IRDPVA11 2 0 071.1 925.2 600.  8.029 32.421  -1.355  6.757
##R
IPDRV121 IPDRV122 1                    4.135  43.2 16  -6    0. SYMM
IRDPVA21 IRDPVA11 1
IRDPVA21 IRDPVA11 2
